Version 4
SHEET 1 1336 680
WIRE 192 -608 240 -624
WIRE 368 -608 304 -624
WIRE -864 -512 -928 -512
WIRE -736 -512 -784 -512
WIRE 128 -512 -544 -512
WIRE 192 -512 192 -608
WIRE 192 -512 128 -512
WIRE 240 -512 192 -512
WIRE 368 -512 368 -608
WIRE 368 -512 320 -512
WIRE 432 -512 368 -512
WIRE -928 -464 -928 -512
WIRE -736 -416 -768 -416
WIRE -448 -416 -544 -416
WIRE -768 -384 -768 -416
WIRE -448 -384 -448 -416
WIRE -928 -368 -928 -384
WIRE 128 -368 128 -512
WIRE 208 -368 128 -368
WIRE 368 -368 368 -400
WIRE 368 -368 336 -368
WIRE 432 -336 432 -512
WIRE 432 -336 336 -336
WIRE 576 -336 432 -336
WIRE 208 -304 96 -304
WIRE 352 -304 336 -304
WIRE 576 -304 576 -336
WIRE 624 -304 576 -304
WIRE 784 -304 784 -336
WIRE 784 -304 752 -304
WIRE -80 -272 -224 -272
WIRE 864 -272 752 -272
WIRE -80 -240 -80 -272
WIRE 96 -240 96 -304
WIRE 624 -240 576 -240
WIRE 768 -240 752 -240
WIRE 864 -240 864 -272
WIRE 400 -208 352 -208
WIRE 400 -176 400 -208
WIRE 576 -176 576 -240
WIRE -224 -160 -224 -272
WIRE 864 -144 864 -160
WIRE 1024 -144 864 -144
WIRE -80 -128 -80 -160
WIRE 48 -128 -80 -128
WIRE 96 -128 96 -240
WIRE 96 -128 48 -128
WIRE 864 -112 864 -144
WIRE -80 -96 -80 -128
WIRE 48 -80 48 -128
WIRE 400 -64 400 -96
WIRE 528 -64 400 -64
WIRE 576 -64 576 -176
WIRE 576 -64 528 -64
WIRE 400 -32 400 -64
WIRE 528 -16 528 -64
WIRE 864 0 864 -32
WIRE -224 16 -224 -80
WIRE -80 16 -80 -16
WIRE -80 16 -224 16
WIRE 48 16 48 -16
WIRE 48 16 -80 16
WIRE -224 48 -224 16
WIRE 400 80 400 48
WIRE 400 80 352 80
WIRE 528 80 528 48
WIRE 528 80 400 80
WIRE 352 112 352 80
FLAG -768 -384 0
FLAG -928 -368 0
FLAG -224 -272 Vcc
FLAG 352 -304 Vcc
FLAG 368 -400 0
FLAG -448 -384 0
FLAG -224 48 0
FLAG 352 -208 Vcc
FLAG 768 -240 Vcc
FLAG 784 -336 0
FLAG 352 112 0
FLAG 864 0 0
DATAFLAG 96 -240 ""
DATAFLAG 576 -176 ""
SYMBOL AutoGenerated\\TL082 272 -336 M180
SYMATTR InstName U1a
SYMBOL cap 304 -640 R90
WINDOW 0 0 32 VBottom 2
WINDOW 3 32 32 VTop 2
SYMATTR InstName C1
SYMATTR Value 5p
SYMBOL res 336 -528 R90
WINDOW 0 0 56 VBottom 2
WINDOW 3 32 56 VTop 2
SYMATTR InstName R1
SYMATTR Value 1Meg
SYMBOL Optos\\4N25 -640 -448 R0
SYMATTR InstName U2
SYMBOL voltage -928 -480 R0
WINDOW 3 24 96 Invisible 2
WINDOW 39 0 0 Left 2
SYMATTR Value PULSE(0 5V 0 1ns 1ns 250us 500us)
SYMATTR Value2 AC 1 0
SYMATTR InstName V1
SYMBOL res -768 -528 R90
WINDOW 0 0 56 VBottom 2
WINDOW 3 32 56 VTop 2
SYMATTR InstName 12k
SYMATTR Value 308k
SYMBOL voltage -224 -176 R0
WINDOW 3 -73 62 Left 2
WINDOW 123 0 0 Left 2
WINDOW 39 0 0 Left 2
WINDOW 0 -70 37 Left 2
SYMATTR Value 9V
SYMATTR InstName V2
SYMBOL res -96 -256 R0
SYMATTR InstName Rpot1a
SYMATTR Value 5k
SYMBOL res -96 -112 R0
SYMATTR InstName Rpot1b
SYMATTR Value 5k
SYMBOL polcap 32 -80 R0
SYMATTR InstName C2
SYMATTR Value 1µF
SYMBOL AutoGenerated\\TL082 688 -272 M180
SYMATTR InstName U1b
SYMBOL res 384 -192 R0
SYMATTR InstName Rpot2a
SYMATTR Value 5k
SYMBOL res 384 -48 R0
SYMATTR InstName Rpo2b
SYMATTR Value 5.03k
SYMBOL polcap 512 -16 R0
SYMATTR InstName C4
SYMATTR Value 1µF
SYMBOL res 848 -256 R0
SYMATTR InstName Rpot3a
SYMATTR Value 5k
SYMBOL res 848 -128 R0
SYMATTR InstName Rpot3b
SYMATTR Value 2.5k
TEXT -528 72 Left 2 !.tran 0 0.002 0 0.001
RECTANGLE Normal -496 -320 -992 -576 2
